399
Point charges XYZ. Argon atoms were placed in order to visualize them, and q_fitt was dropped. q_fitt = 0.001374.
Ar      12.76000   31.97000    0.05000
Ar      18.32000   24.79000   -3.94000
Ar      22.07000   32.87000   -3.10000
Ar      22.15000   27.77000    4.82000
Ar      11.99000   29.94000    0.89000
Ar      17.64000   25.23000   -4.41000
Ar      22.37000   33.26000   -2.05000
Ar      19.59000   25.88000    4.67000
Ar      12.98000   32.35000   -0.06000
Ar      17.02000   24.83000   -3.92000
Ar      23.83000   30.58000   -1.44000
Ar      17.64000   26.96000    5.43000
Ar      13.87000   33.30000    0.93000
Ar      17.09000   25.93000   -4.93000
Ar      22.70000   32.52000   -2.38000
Ar      20.20000   28.44000    5.50000
Ar      13.45000   32.61000    2.38000
Ar      16.93000   25.61000   -4.60000
Ar      23.77000   30.95000   -1.45000
Ar      20.21000   26.54000    4.97000
Ar      13.20000   32.43000    1.29000
Ar      19.21000   24.40000   -3.60000
Ar      23.91000   32.30000   -0.88000
Ar      17.74000   25.29000    4.48000
Ar      13.85000   33.48000   -0.18000
Ar      15.73000   25.05000   -3.42000
Ar      24.01000   29.02000   -1.73000
Ar      19.38000   27.36000    5.41000
Ar      13.46000   32.87000   -1.16000
Ar      16.11000   26.32000   -4.73000
Ar      23.98000   30.05000   -2.20000
Ar      19.79000   27.09000    5.17000
Ar      18.58000   32.37000   -5.29000
Ar      13.28000   26.77000    2.11000
Ar      19.50000   24.65000   -3.50000
Ar      20.36000   33.98000    3.02000
Ar      21.88000   32.83000   -3.02000
Ar      12.60000   27.60000    1.05000
Ar      16.88000   24.97000   -3.75000
Ar      20.59000   33.54000    3.52000
Ar      21.56000   33.06000   -3.40000
Ar      12.59000   27.46000    1.04000
Ar      17.42000   25.75000   -4.87000
Ar      19.88000   32.31000    5.03000
Ar      16.24000   32.13000   -4.85000
Ar      13.45000   26.29000    1.73000
Ar      22.79000   25.59000   -0.28000
Ar      18.43000   34.09000    3.54000
Ar      22.80000   32.24000   -2.80000
Ar      13.57000   26.95000    2.62000
Ar      18.54000   25.24000   -4.48000
Ar      18.30000   33.41000    4.23000
Ar      18.23000   31.37000   -6.11000
Ar      14.86000   26.36000    4.21000
Ar      22.09000   25.05000    0.46000
Ar      18.54000   34.08000    3.55000
Ar      16.33000   34.12000   -3.87000
Ar      18.74000   26.59000    5.04000
Ar      17.83000   24.67000   -4.00000
Ar      21.02000   33.25000    3.72000
Ar      16.29000   31.25000   -5.21000
Ar      14.36000   25.92000    2.77000
Ar      22.58000   25.03000   -1.41000
Ar      17.87000   34.06000    4.00000
Ar      16.24000   32.78000   -4.44000
Ar      13.34000   26.29000    0.91000
Ar      23.47000   26.74000   -0.22000
Ar      19.43000   33.99000    3.53000
Ar      16.75000   31.33000   -5.32000
Ar      12.54000   27.91000    1.56000
Ar      23.38000   26.72000   -2.23000
Ar      19.48000   32.80000    4.50000
Ar      17.39000   31.29000   -5.50000
Ar      12.00000   27.50000    0.25000
Ar      22.81000   25.55000   -0.05000
Ar      18.88000   32.75000    4.55000
Ar      17.81000   33.00000   -5.07000
Ar      14.08000   25.87000    2.82000
Ar      21.37000   24.66000   -3.62000
Ar      19.57000   33.69000    3.92000
Ar      16.59000   30.93000   -5.65000
Ar      13.93000   25.96000    2.51000
Ar      22.38000   25.29000    0.46000
Ar      19.99000   32.44000    4.77000
Ar      12.94000   32.35000   -0.09000
Ar      18.84000   28.12000    6.00000
Ar      15.98000   23.96000   -2.88000
Ar      22.69000   33.44000   -1.53000
Ar      13.04000   32.29000    0.12000
Ar      19.47000   28.50000    5.93000
Ar      17.10000   26.01000   -4.69000
Ar      23.97000   31.43000   -0.88000
Ar      13.85000   32.92000    0.76000
Ar      19.05000   32.05000    5.59000
Ar      16.70000   25.54000   -4.44000
Ar      23.41000   31.30000   -2.39000
Ar      14.53000   25.96000    3.32000
Ar      15.42000   33.02000   -4.71000
Ar      18.82000   24.35000   -3.62000
Ar      19.65000   31.74000    5.23000
Ar      17.39000   24.93000   -3.95000
Ar      17.59000   32.47000   -5.07000
Ar      21.13000   25.75000    3.77000
Ar      22.56000   33.26000   -0.85000
Ar      16.00000   24.97000   -3.37000
Ar      16.89000   33.33000   -4.67000
Ar      19.72000   26.07000    4.50000
Ar      23.22000   31.61000   -2.34000
Ar      17.15000   25.54000   -4.57000
Ar      17.23000   32.50000   -4.83000
Ar      19.89000   27.82000    5.60000
Ar      23.71000   32.40000   -0.70000
Ar      19.31000   24.16000   -3.02000
Ar      16.08000   32.20000   -4.68000
Ar      19.07000   27.23000    5.29000
Ar      21.93000   33.74000   -1.97000
Ar      17.26000   24.52000   -3.36000
Ar      13.84000   32.99000   -1.44000
Ar      16.51000   26.17000    4.86000
Ar      22.94000   32.89000   -1.51000
Ar      17.38000   30.74000   -5.81000
Ar      13.20000   32.53000    0.34000
Ar      17.50000   26.45000    4.96000
Ar      22.53000   33.73000   -0.78000
Ar      16.74000   31.33000   -5.63000
Ar      12.05000   27.98000    0.21000
Ar      20.03000   25.98000    4.31000
Ar      24.10000   30.85000   -1.41000
Ar      16.09000   30.67000   -5.79000
Ar      13.47000   25.70000   -0.51000
Ar      19.93000   28.64000    5.38000
Ar      22.79000   32.31000   -2.20000
Ar      16.67000   26.56000   -4.79000
Ar      13.02000   31.91000    0.60000
Ar      22.03000   33.00000   -2.92000
Ar      22.30000   25.14000   -1.28000
Ar      12.84000   27.73000    2.79000
Ar      18.74000   28.99000    5.96000
Ar      18.73000   33.52000   -4.56000
Ar      16.98000   26.48000   -5.32000
Ar      13.35000   32.58000    0.08000
Ar      19.39000   29.38000    5.91000
Ar      22.20000   33.99000   -2.20000
Ar      18.07000   25.37000   -4.94000
Ar      12.81000   27.40000    1.45000
Ar      19.78000   27.27000    5.08000
Ar      23.34000   32.42000   -0.54000
Ar      18.41000   24.94000   -4.48000
Ar      12.79000   27.71000    1.33000
Ar      19.71000   27.84000    5.66000
Ar      23.71000   31.47000   -1.61000
Ar      16.73000   25.71000   -4.85000
Ar      12.78000   27.50000    1.62000
Ar      21.73000   25.85000    3.41000
Ar      21.15000   33.06000    4.04000
Ar      17.11000   29.19000   -6.27000
Ar      13.45000   25.93000    0.43000
Ar      18.90000   25.86000    4.91000
Ar      22.15000   33.77000    1.16000
Ar      16.00000   25.23000   -3.73000
Ar      14.14000   33.37000    1.03000
Ar      18.46000   26.51000    5.14000
Ar      23.06000   32.01000   -2.39000
Ar      15.53000   24.36000   -2.18000
Ar      14.06000   33.64000   -0.36000
Ar      18.83000   28.85000    5.89000
Ar      23.02000   32.68000   -1.03000
Ar      17.46000   27.30000   -5.78000
Ar      13.61000   33.59000   -0.30000
Ar      19.68000   25.16000    4.37000
Ar      23.60000   32.25000   -0.48000
Ar      17.51000   26.15000   -5.04000
Ar      14.38000   33.85000    1.21000
Ar      20.41000   25.65000    4.57000
Ar      23.33000   32.86000   -0.03000
Ar      16.55000   24.57000   -3.01000
Ar      13.60000   33.24000   -0.30000
Ar      20.39000   27.81000    5.27000
Ar      23.31000   32.19000   -0.99000
Ar      17.54000   25.63000   -4.69000
Ar      13.40000   32.64000    1.67000
Ar      17.14000   25.31000    4.57000
Ar      21.77000   33.30000   -2.86000
Ar      16.10000   27.29000   -5.36000
Ar      16.14000   34.63000    2.86000
Ar      14.77000   25.94000    3.89000
Ar      23.76000   27.00000   -0.83000
Ar      18.21000   25.72000   -4.88000
Ar      19.48000   33.79000    3.66000
Ar      12.63000   27.92000    1.99000
Ar      23.36000   26.26000   -0.92000
Ar      16.67000   25.86000   -4.80000
Ar      20.29000   32.64000    4.69000
Ar      13.12000   32.34000   -0.47000
Ar      23.12000   26.50000   -1.40000
Ar      20.01000   25.44000    4.11000
Ar      22.79000   32.93000   -0.70000
Ar      13.94000   33.47000    0.95000
Ar      17.49000   24.50000   -3.89000
Ar      19.84000   26.80000    5.12000
Ar      22.09000   32.80000   -2.98000
Ar      17.55000   33.61000    3.95000
Ar      16.17000   24.65000   -2.76000
Ar      16.66000   26.68000    5.06000
Ar      23.95000   31.37000   -1.22000
Ar      17.39000   33.62000    4.23000
Ar      18.17000   24.74000   -3.89000
Ar      20.51000   26.26000    4.38000
Ar      22.96000   32.20000   -2.04000
Ar      13.56000   33.06000    1.58000
Ar      16.24000   24.25000   -2.75000
Ar      19.11000   25.97000    5.01000
Ar      23.49000   32.76000   -0.24000
Ar      13.62000   33.32000   -1.30000
Ar      19.42000   23.76000   -2.61000
Ar      18.82000   28.18000    5.55000
Ar      23.69000   27.10000   -0.72000
Ar      13.50000   33.00000   -0.98000
Ar      17.00000   26.37000   -5.28000
Ar      20.92000   26.35000    4.27000
Ar      22.36000   32.93000   -2.55000
Ar      14.08000   33.09000    2.28000
Ar      16.37000   25.83000   -4.27000
Ar      22.55000   25.24000    0.71000
Ar      21.69000   32.89000   -3.18000
Ar      13.84000   33.18000    1.75000
Ar      14.04000   25.75000   -3.63000
Ar      19.47000   26.77000    4.90000
Ar      22.52000   33.62000   -1.49000
Ar      12.81000   32.03000    0.72000
Ar      18.59000   24.92000   -3.98000
Ar      21.50000   24.85000    2.45000
Ar      22.94000   32.93000   -1.82000
Ar      14.69000   33.88000    0.28000
Ar      13.89000   25.20000    0.93000
Ar      22.26000   24.79000    0.30000
Ar      21.97000   32.62000   -4.25000
Ar      14.38000   34.28000   -0.66000
Ar      14.47000   25.96000    3.00000
Ar      18.87000   24.40000   -3.69000
Ar      18.98000   32.39000   -5.18000
Ar      18.87000   34.29000    3.92000
Ar      19.33000   24.39000    4.00000
Ar      17.24000   24.58000   -3.66000
Ar      22.54000   33.56000   -1.09000
Ar      13.13000   32.54000    0.50000
Ar      16.78000   25.20000    4.06000
Ar      17.00000   24.69000   -3.58000
Ar      22.75000   33.03000   -0.71000
Ar      13.39000   33.18000    1.01000
Ar      18.11000   27.22000    5.53000
Ar      15.85000   30.26000   -5.60000
Ar      23.99000   30.99000   -1.02000
Ar      18.98000   33.07000    4.45000
Ar      13.84000   25.17000   -0.09000
Ar      15.94000   32.52000   -4.53000
Ar      23.22000   26.23000   -0.83000
Ar      19.32000   32.73000    4.68000
Ar      14.13000   25.46000    2.08000
Ar      17.28000   29.79000   -6.26000
Ar      23.41000   26.08000    0.32000
Ar      17.84000   34.48000    3.42000
Ar      13.70000   25.53000    0.63000
Ar      16.22000   30.44000   -5.78000
Ar      22.86000   25.84000   -1.32000
Ar      19.81000   31.82000    5.23000
Ar      14.23000   24.66000    0.28000
Ar      18.85000   32.86000   -4.72000
Ar      23.16000   25.94000   -0.48000
Ar      18.90000   33.67000    3.80000
Ar      14.89000   24.45000    1.98000
Ar      18.73000   30.07000   -6.53000
Ar      23.03000   25.79000    1.34000
Ar      18.29000   33.86000    3.84000
Ar      13.38000   25.90000    0.59000
Ar      17.28000   30.59000   -5.95000
Ar      23.95000   29.11000   -2.55000
Ar      19.39000   31.94000    5.20000
Ar      12.85000   27.48000    2.27000
Ar      18.34000   33.48000   -4.57000
Ar      22.80000   25.74000    0.51000
Ar      20.74000   32.75000    3.91000
Ar      14.09000   25.42000    2.12000
Ar      18.44000   31.68000   -5.76000
Ar      23.26000   26.46000    0.84000
Ar      18.46000   33.41000    4.11000
Ar      13.58000   26.02000    2.09000
Ar      15.76000   32.12000   -4.64000
Ar      22.64000   25.84000    1.82000
Ar      18.35000   33.56000    4.18000
Ar      14.39000   25.67000    2.54000
Ar      18.62000   32.55000   -4.94000
Ar      23.73000   26.87000   -1.18000
Ar      11.78000   30.63000   -0.45000
Ar      16.94000   26.36000    5.30000
Ar      22.27000   32.44000   -3.21000
Ar      22.45000   25.33000   -1.65000
Ar      13.65000   32.87000    1.38000
Ar      16.30000   25.38000    4.28000
Ar      22.10000   32.68000   -2.65000
Ar      22.61000   25.17000   -1.08000
Ar      12.62000   31.47000   -0.25000
Ar      17.32000   26.49000    5.36000
Ar      23.32000   31.59000   -1.93000
Ar      22.27000   25.15000   -1.03000
Ar      14.43000   33.96000   -1.43000
Ar      17.22000   28.79000    7.10000
Ar      22.16000   33.25000   -2.06000
Ar      19.45000   26.12000   -5.40000
Ar      12.54000   31.70000    0.59000
Ar      19.41000   26.17000    4.85000
Ar      21.74000   31.67000   -4.72000
Ar      17.38000   25.65000   -4.57000
Ar      13.80000   33.49000   -0.07000
Ar      16.09000   26.65000    4.93000
Ar      24.23000   30.48000   -0.84000
Ar      15.98000   24.41000   -3.07000
Ar      14.44000   33.63000    0.68000
Ar      19.32000   26.07000    4.70000
Ar      23.37000   31.90000   -1.88000
Ar      16.12000   32.19000   -4.77000
Ar      12.50000   27.63000    2.30000
Ar      21.11000   26.63000    4.61000
Ar      23.06000   32.90000   -0.68000
Ar      14.33000   33.68000   -2.30000
Ar      13.82000   26.44000    3.50000
Ar      19.59000   29.17000    5.75000
Ar      22.96000   32.80000   -1.71000
Ar      14.61000   34.19000    2.27000
Ar      17.97000   24.64000   -3.53000
Ar      19.73000   29.77000    5.83000
Ar      23.69000   31.73000   -0.97000
Ar      14.01000   33.61000    0.85000
Ar      17.02000   24.22000   -3.06000
Ar      13.58000   26.43000    2.66000
Ar      22.42000   33.21000   -0.96000
Ar      14.31000   33.58000    0.86000
Ar      18.65000   23.85000   -2.82000
Ar      19.95000   26.60000    5.15000
Ar      22.92000   33.37000   -0.62000
Ar      12.36000   31.35000   -0.12000
Ar      18.11000   25.27000   -4.62000
Ar      17.95000   26.70000    5.39000
Ar      21.70000   34.24000   -0.14000
Ar      12.80000   31.49000    1.21000
Ar      17.08000   26.70000   -5.25000
Ar      19.45000   25.95000    4.49000
Ar      23.44000   32.67000   -0.70000
Ar      14.19000   33.19000   -2.05000
Ar      23.23000   26.53000    0.88000
Ar      13.67000   25.80000    2.25000
Ar      22.26000   32.81000   -2.33000
Ar      13.12000   32.29000   -1.81000
Ar      20.84000   23.41000   -1.66000
Ar      18.55000   26.72000    5.14000
Ar      22.46000   32.70000   -2.43000
Ar      13.35000   32.29000    1.46000
Ar      15.90000   25.80000   -4.75000
Ar      19.40000   26.85000    5.17000
Ar      22.68000   32.25000   -2.58000
Ar      14.06000   26.24000    3.00000
Ar      16.86000   25.34000   -4.53000
Ar      18.56000   33.81000    3.56000
Ar      22.36000   32.83000   -2.94000
Ar      19.79000   27.80000    5.45000
Ar      15.37000   26.41000   -4.70000
Ar      14.92000   34.20000    1.54000
Ar      23.47000   31.75000   -0.76000
Ar      18.69000   28.30000    5.56000
Ar      16.94000   25.77000   -4.68000
Ar      14.51000   33.84000   -1.83000
Ar      22.53000   33.08000   -0.84000
Ar      19.64000   27.54000    5.35000
Ar      16.73000   24.92000   -3.61000
Ar      14.78000   34.33000    1.80000
Ar      23.56000   31.38000   -1.53000
Ar      18.36000   27.53000    5.71000
Ar      18.65000   24.42000   -3.70000
Ar      12.34000   27.89000    0.76000
Ar      14.66000   33.82000    1.38000
Ar      23.37000   26.31000   -1.12000
Ar      16.39000   30.86000   -5.68000
Ar      15.33000   25.46000    4.09000
Ar      16.92000   33.07000    5.09000
Ar      23.58000   26.65000   -0.47000
Ar      16.47000   32.56000   -4.86000
Ar      14.47000   24.81000    0.51000
Ar      17.91000   33.22000   -5.07000
Ar      21.94000   24.71000   -1.99000
Ar      19.36000   32.88000    4.55000
Ar      12.41000   27.68000    0.83000
Ar      17.76000   31.58000   -5.52000
Ar      20.13000   22.43000   -0.26000
Ar      19.45000   34.49000    2.87000
Ar      13.90000   25.84000    1.95000
Ar      16.79000   32.52000   -5.01000
Ar      22.60000   25.58000   -0.99000
Ar      19.65000   28.24000    5.65000
Ar      12.80000   26.75000    0.50000
