25
Average coordinates of LNW residue
W    16.901   29.735    1.903
W    18.211   31.681   -0.530
W    20.200   29.564    1.173
W    19.475   28.952   -2.071
W    18.168   27.003    0.363
W    16.180   29.119   -1.343
O    15.955   30.020    3.357
O    17.118   27.792    1.903
O    18.744   29.839    2.550
O    17.149   31.536    1.184
O    15.525   29.484    0.536
O    16.603   31.029   -1.438
O    19.808   31.381    0.562
O    21.681   29.735    2.100
O    18.228   33.405   -0.858
O    18.189   29.343   -0.085
O    20.421   28.667   -3.524
O    19.264   30.896   -2.066
O    17.635   28.847   -2.722
O    19.224   27.150   -1.356
O    20.853   29.203   -0.705
O    19.771   27.658    1.274
O    16.571   27.302   -0.728
O    14.700   28.959   -2.269
O    18.157   25.280    0.694
